L24/1726534/_ATERRAMENTO.dss
! Aterramento do neutro (no 4) dos secundarios de BT
! Reactor de 0.5 ohm entre o no 4 e a terra (no 0).
New Reactor.NEUTRO_node_1047238129 phases=1 bus1=node_1047238129.4 bus2=node_1047238129.0 R=0.5 X=0
New Reactor.NEUTRO_node_1212897016 phases=1 bus1=node_1212897016.4 bus2=node_1212897016.0 R=0.5 X=0
New Reactor.NEUTRO_node_1212897125 phases=1 bus1=node_1212897125.4 bus2=node_1212897125.0 R=0.5 X=0
New Reactor.NEUTRO_node_1212897227 phases=1 bus1=node_1212897227.4 bus2=node_1212897227.0 R=0.5 X=0
New Reactor.NEUTRO_node_1212897408 phases=1 bus1=node_1212897408.4 bus2=node_1212897408.0 R=0.5 X=0
New Reactor.NEUTRO_node_1234791384 phases=1 bus1=node_1234791384.4 bus2=node_1234791384.0 R=0.5 X=0
New Reactor.NEUTRO_node_1251494989 phases=1 bus1=node_1251494989.4 bus2=node_1251494989.0 R=0.5 X=0
New Reactor.NEUTRO_node_1253680545 phases=1 bus1=node_1253680545.4 bus2=node_1253680545.0 R=0.5 X=0
New Reactor.NEUTRO_node_1254827117 phases=1 bus1=node_1254827117.4 bus2=node_1254827117.0 R=0.5 X=0
New Reactor.NEUTRO_node_1315853487 phases=1 bus1=node_1315853487.4 bus2=node_1315853487.0 R=0.5 X=0
New Reactor.NEUTRO_node_1348234574 phases=1 bus1=node_1348234574.4 bus2=node_1348234574.0 R=0.5 X=0
New Reactor.NEUTRO_node_1350858059 phases=1 bus1=node_1350858059.4 bus2=node_1350858059.0 R=0.5 X=0
New Reactor.NEUTRO_node_1351025523 phases=1 bus1=node_1351025523.4 bus2=node_1351025523.0 R=0.5 X=0
New Reactor.NEUTRO_node_1398968165 phases=1 bus1=node_1398968165.4 bus2=node_1398968165.0 R=0.5 X=0
New Reactor.NEUTRO_node_1425462734 phases=1 bus1=node_1425462734.4 bus2=node_1425462734.0 R=0.5 X=0
New Reactor.NEUTRO_node_1429455521 phases=1 bus1=node_1429455521.4 bus2=node_1429455521.0 R=0.5 X=0
New Reactor.NEUTRO_node_1439035355 phases=1 bus1=node_1439035355.4 bus2=node_1439035355.0 R=0.5 X=0
New Reactor.NEUTRO_node_1440147542 phases=1 bus1=node_1440147542.4 bus2=node_1440147542.0 R=0.5 X=0
New Reactor.NEUTRO_node_1441294193 phases=1 bus1=node_1441294193.4 bus2=node_1441294193.0 R=0.5 X=0
New Reactor.NEUTRO_node_1444463129 phases=1 bus1=node_1444463129.4 bus2=node_1444463129.0 R=0.5 X=0
New Reactor.NEUTRO_node_1560151789 phases=1 bus1=node_1560151789.4 bus2=node_1560151789.0 R=0.5 X=0
New Reactor.NEUTRO_node_1606849345 phases=1 bus1=node_1606849345.4 bus2=node_1606849345.0 R=0.5 X=0
New Reactor.NEUTRO_node_1619538031 phases=1 bus1=node_1619538031.4 bus2=node_1619538031.0 R=0.5 X=0
New Reactor.NEUTRO_node_1673068061 phases=1 bus1=node_1673068061.4 bus2=node_1673068061.0 R=0.5 X=0
New Reactor.NEUTRO_node_1673068324 phases=1 bus1=node_1673068324.4 bus2=node_1673068324.0 R=0.5 X=0
New Reactor.NEUTRO_node_1673068457 phases=1 bus1=node_1673068457.4 bus2=node_1673068457.0 R=0.5 X=0
New Reactor.NEUTRO_node_1673068840 phases=1 bus1=node_1673068840.4 bus2=node_1673068840.0 R=0.5 X=0
New Reactor.NEUTRO_node_1712829733 phases=1 bus1=node_1712829733.4 bus2=node_1712829733.0 R=0.5 X=0
New Reactor.NEUTRO_node_1718514749 phases=1 bus1=node_1718514749.4 bus2=node_1718514749.0 R=0.5 X=0
New Reactor.NEUTRO_node_1723083745 phases=1 bus1=node_1723083745.4 bus2=node_1723083745.0 R=0.5 X=0
New Reactor.NEUTRO_node_1728807534 phases=1 bus1=node_1728807534.4 bus2=node_1728807534.0 R=0.5 X=0
New Reactor.NEUTRO_node_1736313595 phases=1 bus1=node_1736313595.4 bus2=node_1736313595.0 R=0.5 X=0
New Reactor.NEUTRO_node_1747628159 phases=1 bus1=node_1747628159.4 bus2=node_1747628159.0 R=0.5 X=0
New Reactor.NEUTRO_node_1757371112 phases=1 bus1=node_1757371112.4 bus2=node_1757371112.0 R=0.5 X=0
New Reactor.NEUTRO_node_1769168380 phases=1 bus1=node_1769168380.4 bus2=node_1769168380.0 R=0.5 X=0
New Reactor.NEUTRO_node_1781580796 phases=1 bus1=node_1781580796.4 bus2=node_1781580796.0 R=0.5 X=0
New Reactor.NEUTRO_node_1783019215 phases=1 bus1=node_1783019215.4 bus2=node_1783019215.0 R=0.5 X=0
New Reactor.NEUTRO_node_1799083132 phases=1 bus1=node_1799083132.4 bus2=node_1799083132.0 R=0.5 X=0
New Reactor.NEUTRO_node_1803119309 phases=1 bus1=node_1803119309.4 bus2=node_1803119309.0 R=0.5 X=0
New Reactor.NEUTRO_node_1803119630 phases=1 bus1=node_1803119630.4 bus2=node_1803119630.0 R=0.5 X=0
New Reactor.NEUTRO_node_1803119791 phases=1 bus1=node_1803119791.4 bus2=node_1803119791.0 R=0.5 X=0
New Reactor.NEUTRO_node_1803120080 phases=1 bus1=node_1803120080.4 bus2=node_1803120080.0 R=0.5 X=0
New Reactor.NEUTRO_node_1803120909 phases=1 bus1=node_1803120909.4 bus2=node_1803120909.0 R=0.5 X=0
New Reactor.NEUTRO_node_1860508685 phases=1 bus1=node_1860508685.4 bus2=node_1860508685.0 R=0.5 X=0
New Reactor.NEUTRO_node_1860508858 phases=1 bus1=node_1860508858.4 bus2=node_1860508858.0 R=0.5 X=0
New Reactor.NEUTRO_node_1866125618 phases=1 bus1=node_1866125618.4 bus2=node_1866125618.0 R=0.5 X=0
New Reactor.NEUTRO_node_1891442602 phases=1 bus1=node_1891442602.4 bus2=node_1891442602.0 R=0.5 X=0
New Reactor.NEUTRO_node_1898527704 phases=1 bus1=node_1898527704.4 bus2=node_1898527704.0 R=0.5 X=0
New Reactor.NEUTRO_node_1904569532 phases=1 bus1=node_1904569532.4 bus2=node_1904569532.0 R=0.5 X=0
New Reactor.NEUTRO_node_1936195511 phases=1 bus1=node_1936195511.4 bus2=node_1936195511.0 R=0.5 X=0
New Reactor.NEUTRO_node_1940166817 phases=1 bus1=node_1940166817.4 bus2=node_1940166817.0 R=0.5 X=0
New Reactor.NEUTRO_node_1942137651 phases=1 bus1=node_1942137651.4 bus2=node_1942137651.0 R=0.5 X=0
New Reactor.NEUTRO_node_1947299004 phases=1 bus1=node_1947299004.4 bus2=node_1947299004.0 R=0.5 X=0
New Reactor.NEUTRO_node_1956827728 phases=1 bus1=node_1956827728.4 bus2=node_1956827728.0 R=0.5 X=0
New Reactor.NEUTRO_node_1959389382 phases=1 bus1=node_1959389382.4 bus2=node_1959389382.0 R=0.5 X=0
New Reactor.NEUTRO_node_1975605258 phases=1 bus1=node_1975605258.4 bus2=node_1975605258.0 R=0.5 X=0
New Reactor.NEUTRO_node_1975901379 phases=1 bus1=node_1975901379.4 bus2=node_1975901379.0 R=0.5 X=0
New Reactor.NEUTRO_node_1977685780 phases=1 bus1=node_1977685780.4 bus2=node_1977685780.0 R=0.5 X=0
New Reactor.NEUTRO_node_1985592897 phases=1 bus1=node_1985592897.4 bus2=node_1985592897.0 R=0.5 X=0
New Reactor.NEUTRO_node_1985593307 phases=1 bus1=node_1985593307.4 bus2=node_1985593307.0 R=0.5 X=0
New Reactor.NEUTRO_node_1999003011 phases=1 bus1=node_1999003011.4 bus2=node_1999003011.0 R=0.5 X=0
New Reactor.NEUTRO_node_2001583737 phases=1 bus1=node_2001583737.4 bus2=node_2001583737.0 R=0.5 X=0
New Reactor.NEUTRO_node_2016647125 phases=1 bus1=node_2016647125.4 bus2=node_2016647125.0 R=0.5 X=0
New Reactor.NEUTRO_node_2017055033 phases=1 bus1=node_2017055033.4 bus2=node_2017055033.0 R=0.5 X=0
New Reactor.NEUTRO_node_2019515528 phases=1 bus1=node_2019515528.4 bus2=node_2019515528.0 R=0.5 X=0
New Reactor.NEUTRO_node_2026785242 phases=1 bus1=node_2026785242.4 bus2=node_2026785242.0 R=0.5 X=0
New Reactor.NEUTRO_node_2044609906 phases=1 bus1=node_2044609906.4 bus2=node_2044609906.0 R=0.5 X=0
New Reactor.NEUTRO_node_2045343876 phases=1 bus1=node_2045343876.4 bus2=node_2045343876.0 R=0.5 X=0
New Reactor.NEUTRO_node_2045343982 phases=1 bus1=node_2045343982.4 bus2=node_2045343982.0 R=0.5 X=0
New Reactor.NEUTRO_node_2055009679 phases=1 bus1=node_2055009679.4 bus2=node_2055009679.0 R=0.5 X=0
New Reactor.NEUTRO_node_2065955124 phases=1 bus1=node_2065955124.4 bus2=node_2065955124.0 R=0.5 X=0
New Reactor.NEUTRO_node_2065955256 phases=1 bus1=node_2065955256.4 bus2=node_2065955256.0 R=0.5 X=0
New Reactor.NEUTRO_node_2092935411 phases=1 bus1=node_2092935411.4 bus2=node_2092935411.0 R=0.5 X=0
New Reactor.NEUTRO_node_2114120876 phases=1 bus1=node_2114120876.4 bus2=node_2114120876.0 R=0.5 X=0
New Reactor.NEUTRO_node_2124061617 phases=1 bus1=node_2124061617.4 bus2=node_2124061617.0 R=0.5 X=0
New Reactor.NEUTRO_node_2128514452 phases=1 bus1=node_2128514452.4 bus2=node_2128514452.0 R=0.5 X=0
New Reactor.NEUTRO_node_2154390037 phases=1 bus1=node_2154390037.4 bus2=node_2154390037.0 R=0.5 X=0
New Reactor.NEUTRO_node_2177414419 phases=1 bus1=node_2177414419.4 bus2=node_2177414419.0 R=0.5 X=0
New Reactor.NEUTRO_node_2197635210 phases=1 bus1=node_2197635210.4 bus2=node_2197635210.0 R=0.5 X=0
New Reactor.NEUTRO_node_2226744142 phases=1 bus1=node_2226744142.4 bus2=node_2226744142.0 R=0.5 X=0
New Reactor.NEUTRO_node_2228010951 phases=1 bus1=node_2228010951.4 bus2=node_2228010951.0 R=0.5 X=0
New Reactor.NEUTRO_node_2246569379 phases=1 bus1=node_2246569379.4 bus2=node_2246569379.0 R=0.5 X=0
New Reactor.NEUTRO_node_2283283045 phases=1 bus1=node_2283283045.4 bus2=node_2283283045.0 R=0.5 X=0
New Reactor.NEUTRO_node_2285829386 phases=1 bus1=node_2285829386.4 bus2=node_2285829386.0 R=0.5 X=0
New Reactor.NEUTRO_node_2304710152 phases=1 bus1=node_2304710152.4 bus2=node_2304710152.0 R=0.5 X=0
New Reactor.NEUTRO_node_2334836859 phases=1 bus1=node_2334836859.4 bus2=node_2334836859.0 R=0.5 X=0
New Reactor.NEUTRO_node_2334909804 phases=1 bus1=node_2334909804.4 bus2=node_2334909804.0 R=0.5 X=0
New Reactor.NEUTRO_node_2334909823 phases=1 bus1=node_2334909823.4 bus2=node_2334909823.0 R=0.5 X=0
New Reactor.NEUTRO_node_2337537786 phases=1 bus1=node_2337537786.4 bus2=node_2337537786.0 R=0.5 X=0
New Reactor.NEUTRO_node_2345017873 phases=1 bus1=node_2345017873.4 bus2=node_2345017873.0 R=0.5 X=0
New Reactor.NEUTRO_node_2354533388 phases=1 bus1=node_2354533388.4 bus2=node_2354533388.0 R=0.5 X=0
New Reactor.NEUTRO_node_2390238137 phases=1 bus1=node_2390238137.4 bus2=node_2390238137.0 R=0.5 X=0
New Reactor.NEUTRO_node_2394875621 phases=1 bus1=node_2394875621.4 bus2=node_2394875621.0 R=0.5 X=0
New Reactor.NEUTRO_node_2494415416 phases=1 bus1=node_2494415416.4 bus2=node_2494415416.0 R=0.5 X=0
New Reactor.NEUTRO_node_2494415548 phases=1 bus1=node_2494415548.4 bus2=node_2494415548.0 R=0.5 X=0
New Reactor.NEUTRO_node_2495836097 phases=1 bus1=node_2495836097.4 bus2=node_2495836097.0 R=0.5 X=0
New Reactor.NEUTRO_node_2509400808 phases=1 bus1=node_2509400808.4 bus2=node_2509400808.0 R=0.5 X=0
New Reactor.NEUTRO_node_2513175442 phases=1 bus1=node_2513175442.4 bus2=node_2513175442.0 R=0.5 X=0
New Reactor.NEUTRO_node_2527827518 phases=1 bus1=node_2527827518.4 bus2=node_2527827518.0 R=0.5 X=0
New Reactor.NEUTRO_node_2545169740 phases=1 bus1=node_2545169740.4 bus2=node_2545169740.0 R=0.5 X=0
New Reactor.NEUTRO_node_2555818914 phases=1 bus1=node_2555818914.4 bus2=node_2555818914.0 R=0.5 X=0
New Reactor.NEUTRO_node_2581372673 phases=1 bus1=node_2581372673.4 bus2=node_2581372673.0 R=0.5 X=0
New Reactor.NEUTRO_node_2604826686 phases=1 bus1=node_2604826686.4 bus2=node_2604826686.0 R=0.5 X=0
New Reactor.NEUTRO_node_2604827491 phases=1 bus1=node_2604827491.4 bus2=node_2604827491.0 R=0.5 X=0
New Reactor.NEUTRO_node_2604828219 phases=1 bus1=node_2604828219.4 bus2=node_2604828219.0 R=0.5 X=0
New Reactor.NEUTRO_node_2612422411 phases=1 bus1=node_2612422411.4 bus2=node_2612422411.0 R=0.5 X=0
New Reactor.NEUTRO_node_2629843403 phases=1 bus1=node_2629843403.4 bus2=node_2629843403.0 R=0.5 X=0
New Reactor.NEUTRO_node_2640797235 phases=1 bus1=node_2640797235.4 bus2=node_2640797235.0 R=0.5 X=0
New Reactor.NEUTRO_node_2688980094 phases=1 bus1=node_2688980094.4 bus2=node_2688980094.0 R=0.5 X=0
New Reactor.NEUTRO_node_2698968102 phases=1 bus1=node_2698968102.4 bus2=node_2698968102.0 R=0.5 X=0
New Reactor.NEUTRO_node_2699092882 phases=1 bus1=node_2699092882.4 bus2=node_2699092882.0 R=0.5 X=0
New Reactor.NEUTRO_node_2711307243 phases=1 bus1=node_2711307243.4 bus2=node_2711307243.0 R=0.5 X=0
New Reactor.NEUTRO_node_2717544665 phases=1 bus1=node_2717544665.4 bus2=node_2717544665.0 R=0.5 X=0
New Reactor.NEUTRO_node_2737786529 phases=1 bus1=node_2737786529.4 bus2=node_2737786529.0 R=0.5 X=0
New Reactor.NEUTRO_node_2757392332 phases=1 bus1=node_2757392332.4 bus2=node_2757392332.0 R=0.5 X=0
New Reactor.NEUTRO_node_2758402668 phases=1 bus1=node_2758402668.4 bus2=node_2758402668.0 R=0.5 X=0
New Reactor.NEUTRO_node_2758402983 phases=1 bus1=node_2758402983.4 bus2=node_2758402983.0 R=0.5 X=0
New Reactor.NEUTRO_node_2769007793 phases=1 bus1=node_2769007793.4 bus2=node_2769007793.0 R=0.5 X=0
New Reactor.NEUTRO_node_2773400487 phases=1 bus1=node_2773400487.4 bus2=node_2773400487.0 R=0.5 X=0
New Reactor.NEUTRO_node_2807632881 phases=1 bus1=node_2807632881.4 bus2=node_2807632881.0 R=0.5 X=0
New Reactor.NEUTRO_node_2809457475 phases=1 bus1=node_2809457475.4 bus2=node_2809457475.0 R=0.5 X=0
New Reactor.NEUTRO_node_2832963968 phases=1 bus1=node_2832963968.4 bus2=node_2832963968.0 R=0.5 X=0
New Reactor.NEUTRO_node_2844526388 phases=1 bus1=node_2844526388.4 bus2=node_2844526388.0 R=0.5 X=0
New Reactor.NEUTRO_node_2853573912 phases=1 bus1=node_2853573912.4 bus2=node_2853573912.0 R=0.5 X=0
New Reactor.NEUTRO_node_2892764905 phases=1 bus1=node_2892764905.4 bus2=node_2892764905.0 R=0.5 X=0
New Reactor.NEUTRO_node_2906788498 phases=1 bus1=node_2906788498.4 bus2=node_2906788498.0 R=0.5 X=0
New Reactor.NEUTRO_node_403578851 phases=1 bus1=node_403578851.4 bus2=node_403578851.0 R=0.5 X=0
New Reactor.NEUTRO_node_403578854 phases=1 bus1=node_403578854.4 bus2=node_403578854.0 R=0.5 X=0
New Reactor.NEUTRO_node_403578887 phases=1 bus1=node_403578887.4 bus2=node_403578887.0 R=0.5 X=0
New Reactor.NEUTRO_node_403578911 phases=1 bus1=node_403578911.4 bus2=node_403578911.0 R=0.5 X=0
New Reactor.NEUTRO_node_403578914 phases=1 bus1=node_403578914.4 bus2=node_403578914.0 R=0.5 X=0
New Reactor.NEUTRO_node_403578917 phases=1 bus1=node_403578917.4 bus2=node_403578917.0 R=0.5 X=0
New Reactor.NEUTRO_node_403578920 phases=1 bus1=node_403578920.4 bus2=node_403578920.0 R=0.5 X=0
New Reactor.NEUTRO_node_403578932 phases=1 bus1=node_403578932.4 bus2=node_403578932.0 R=0.5 X=0
New Reactor.NEUTRO_node_403578935 phases=1 bus1=node_403578935.4 bus2=node_403578935.0 R=0.5 X=0
New Reactor.NEUTRO_node_403578944 phases=1 bus1=node_403578944.4 bus2=node_403578944.0 R=0.5 X=0
New Reactor.NEUTRO_node_403578947 phases=1 bus1=node_403578947.4 bus2=node_403578947.0 R=0.5 X=0
New Reactor.NEUTRO_node_403579025 phases=1 bus1=node_403579025.4 bus2=node_403579025.0 R=0.5 X=0
New Reactor.NEUTRO_node_403579028 phases=1 bus1=node_403579028.4 bus2=node_403579028.0 R=0.5 X=0
New Reactor.NEUTRO_node_403579034 phases=1 bus1=node_403579034.4 bus2=node_403579034.0 R=0.5 X=0
New Reactor.NEUTRO_node_403579037 phases=1 bus1=node_403579037.4 bus2=node_403579037.0 R=0.5 X=0
New Reactor.NEUTRO_node_403579097 phases=1 bus1=node_403579097.4 bus2=node_403579097.0 R=0.5 X=0
New Reactor.NEUTRO_node_403579100 phases=1 bus1=node_403579100.4 bus2=node_403579100.0 R=0.5 X=0
New Reactor.NEUTRO_node_403579103 phases=1 bus1=node_403579103.4 bus2=node_403579103.0 R=0.5 X=0
New Reactor.NEUTRO_node_403579106 phases=1 bus1=node_403579106.4 bus2=node_403579106.0 R=0.5 X=0
New Reactor.NEUTRO_node_403579109 phases=1 bus1=node_403579109.4 bus2=node_403579109.0 R=0.5 X=0
New Reactor.NEUTRO_node_403579118 phases=1 bus1=node_403579118.4 bus2=node_403579118.0 R=0.5 X=0
New Reactor.NEUTRO_node_403579124 phases=1 bus1=node_403579124.4 bus2=node_403579124.0 R=0.5 X=0
New Reactor.NEUTRO_node_403579133 phases=1 bus1=node_403579133.4 bus2=node_403579133.0 R=0.5 X=0
New Reactor.NEUTRO_node_403579136 phases=1 bus1=node_403579136.4 bus2=node_403579136.0 R=0.5 X=0
New Reactor.NEUTRO_node_403579322 phases=1 bus1=node_403579322.4 bus2=node_403579322.0 R=0.5 X=0
New Reactor.NEUTRO_node_403579328 phases=1 bus1=node_403579328.4 bus2=node_403579328.0 R=0.5 X=0
New Reactor.NEUTRO_node_403579337 phases=1 bus1=node_403579337.4 bus2=node_403579337.0 R=0.5 X=0
New Reactor.NEUTRO_node_403579346 phases=1 bus1=node_403579346.4 bus2=node_403579346.0 R=0.5 X=0
New Reactor.NEUTRO_node_403579349 phases=1 bus1=node_403579349.4 bus2=node_403579349.0 R=0.5 X=0
New Reactor.NEUTRO_node_403579352 phases=1 bus1=node_403579352.4 bus2=node_403579352.0 R=0.5 X=0
New Reactor.NEUTRO_node_403579361 phases=1 bus1=node_403579361.4 bus2=node_403579361.0 R=0.5 X=0
New Reactor.NEUTRO_node_403579367 phases=1 bus1=node_403579367.4 bus2=node_403579367.0 R=0.5 X=0
New Reactor.NEUTRO_node_403579373 phases=1 bus1=node_403579373.4 bus2=node_403579373.0 R=0.5 X=0
New Reactor.NEUTRO_node_403579388 phases=1 bus1=node_403579388.4 bus2=node_403579388.0 R=0.5 X=0
New Reactor.NEUTRO_node_403579394 phases=1 bus1=node_403579394.4 bus2=node_403579394.0 R=0.5 X=0
New Reactor.NEUTRO_node_403579406 phases=1 bus1=node_403579406.4 bus2=node_403579406.0 R=0.5 X=0
New Reactor.NEUTRO_node_403580048 phases=1 bus1=node_403580048.4 bus2=node_403580048.0 R=0.5 X=0
New Reactor.NEUTRO_node_403580051 phases=1 bus1=node_403580051.4 bus2=node_403580051.0 R=0.5 X=0
New Reactor.NEUTRO_node_403580054 phases=1 bus1=node_403580054.4 bus2=node_403580054.0 R=0.5 X=0
New Reactor.NEUTRO_node_403580060 phases=1 bus1=node_403580060.4 bus2=node_403580060.0 R=0.5 X=0
New Reactor.NEUTRO_node_403649034 phases=1 bus1=node_403649034.4 bus2=node_403649034.0 R=0.5 X=0
New Reactor.NEUTRO_node_403649037 phases=1 bus1=node_403649037.4 bus2=node_403649037.0 R=0.5 X=0
New Reactor.NEUTRO_node_403649046 phases=1 bus1=node_403649046.4 bus2=node_403649046.0 R=0.5 X=0
New Reactor.NEUTRO_node_403649049 phases=1 bus1=node_403649049.4 bus2=node_403649049.0 R=0.5 X=0
New Reactor.NEUTRO_node_403649055 phases=1 bus1=node_403649055.4 bus2=node_403649055.0 R=0.5 X=0
New Reactor.NEUTRO_node_403649061 phases=1 bus1=node_403649061.4 bus2=node_403649061.0 R=0.5 X=0
New Reactor.NEUTRO_node_403649070 phases=1 bus1=node_403649070.4 bus2=node_403649070.0 R=0.5 X=0
New Reactor.NEUTRO_node_403649073 phases=1 bus1=node_403649073.4 bus2=node_403649073.0 R=0.5 X=0
New Reactor.NEUTRO_node_403649076 phases=1 bus1=node_403649076.4 bus2=node_403649076.0 R=0.5 X=0
New Reactor.NEUTRO_node_403649079 phases=1 bus1=node_403649079.4 bus2=node_403649079.0 R=0.5 X=0
New Reactor.NEUTRO_node_403649085 phases=1 bus1=node_403649085.4 bus2=node_403649085.0 R=0.5 X=0
New Reactor.NEUTRO_node_403649097 phases=1 bus1=node_403649097.4 bus2=node_403649097.0 R=0.5 X=0
New Reactor.NEUTRO_node_403649112 phases=1 bus1=node_403649112.4 bus2=node_403649112.0 R=0.5 X=0
New Reactor.NEUTRO_node_403649115 phases=1 bus1=node_403649115.4 bus2=node_403649115.0 R=0.5 X=0
New Reactor.NEUTRO_node_403649118 phases=1 bus1=node_403649118.4 bus2=node_403649118.0 R=0.5 X=0
New Reactor.NEUTRO_node_403649130 phases=1 bus1=node_403649130.4 bus2=node_403649130.0 R=0.5 X=0
New Reactor.NEUTRO_node_403649136 phases=1 bus1=node_403649136.4 bus2=node_403649136.0 R=0.5 X=0
New Reactor.NEUTRO_node_403649139 phases=1 bus1=node_403649139.4 bus2=node_403649139.0 R=0.5 X=0
New Reactor.NEUTRO_node_403649766 phases=1 bus1=node_403649766.4 bus2=node_403649766.0 R=0.5 X=0
New Reactor.NEUTRO_node_403649769 phases=1 bus1=node_403649769.4 bus2=node_403649769.0 R=0.5 X=0
New Reactor.NEUTRO_node_403649784 phases=1 bus1=node_403649784.4 bus2=node_403649784.0 R=0.5 X=0
New Reactor.NEUTRO_node_403649796 phases=1 bus1=node_403649796.4 bus2=node_403649796.0 R=0.5 X=0
New Reactor.NEUTRO_node_403649805 phases=1 bus1=node_403649805.4 bus2=node_403649805.0 R=0.5 X=0
New Reactor.NEUTRO_node_403649808 phases=1 bus1=node_403649808.4 bus2=node_403649808.0 R=0.5 X=0
New Reactor.NEUTRO_node_403649817 phases=1 bus1=node_403649817.4 bus2=node_403649817.0 R=0.5 X=0
New Reactor.NEUTRO_node_403649835 phases=1 bus1=node_403649835.4 bus2=node_403649835.0 R=0.5 X=0
New Reactor.NEUTRO_node_403649841 phases=1 bus1=node_403649841.4 bus2=node_403649841.0 R=0.5 X=0
New Reactor.NEUTRO_node_403649844 phases=1 bus1=node_403649844.4 bus2=node_403649844.0 R=0.5 X=0
New Reactor.NEUTRO_node_403649847 phases=1 bus1=node_403649847.4 bus2=node_403649847.0 R=0.5 X=0
New Reactor.NEUTRO_node_403649850 phases=1 bus1=node_403649850.4 bus2=node_403649850.0 R=0.5 X=0
New Reactor.NEUTRO_node_403649853 phases=1 bus1=node_403649853.4 bus2=node_403649853.0 R=0.5 X=0
New Reactor.NEUTRO_node_403649856 phases=1 bus1=node_403649856.4 bus2=node_403649856.0 R=0.5 X=0
New Reactor.NEUTRO_node_403649859 phases=1 bus1=node_403649859.4 bus2=node_403649859.0 R=0.5 X=0
New Reactor.NEUTRO_node_403649916 phases=1 bus1=node_403649916.4 bus2=node_403649916.0 R=0.5 X=0
...
